/*--------------------------------*- C++ -*----------------------------------*\
| =========                 |                                                 |
| \\      /  F ield         | foam-extend: Open Source CFD                    |
|  \\    /   O peration     | Version:     4.0                                |
|   \\  /    A nd           | Web:         http://www.foam-extend.org         |
|    \\/     M anipulation  |                                                 |
\*---------------------------------------------------------------------------*/
FoamFile
{
    version     2.0;
    format      ascii;
    class       dictionary;
    location    "system";
    object      controlDict;
}
// * * * * * * * * * * * * * * * * * * * * * * * * * * * * * * * * * * * * * //

libs
(
    "libfiniteVolume.so"
    "libfluidThermophysicalModels.so"
    "libregionModels.so"
    "libfvOptions.so"
    "$FOAM_LIBBIN/libthermoTools.so"   // <— portable
);




application     laserMeltFoam;

startFrom       latestTime;

startTime       0;

stopAt          endTime;

endTime         1e-3;

deltaT          1e-12;

writeControl    adjustableRunTime;

writeInterval   1e-4; // 1e-12 if you want to run a couple of time steps to see if its ok

writeFormat     ascii;

writePrecision  6;

writeCompression off;

timeFormat      general;

timePrecision   6;

runTimeModifiable no;

adjustTimeStep  yes;

maxCo          	0.9;

maxAlphaCo	    0.9;

maxDeltaT       5e-7;



functions
{

wallHeatFlux_all
{
    type                wallHeatFlux;
   // functionObjectLibs  ("libfieldFunctionObjects.so");
    // Si usas multirregión, descomenta e indica la región sólida:
    // region            solid;

    patches             (leftWall rightWall topWall bottomWall front back);

    // Frecuencia (puedes ajustarla):
    executeControl      timeStep;
    executeInterval     1;
    writeControl        writeTime;
    writeInterval       1;
}

    qLeft_total
    {
        type                surfaceFieldValue;
     //   functionObjectLibs  ("libfieldFunctionObjects.so");
        // region           solid;
        operation           areaIntegrate;
        fields              (wallHeatFlux);
        writeFields         false;

        // Selección del parche:
        regionType          patch;
        name                leftWall;
    }

    qRightWall
    {
        type                surfaceFieldValue;
     //   functionObjectLibs  ("libfieldFunctionObjects.so");
        // region           solid;
        operation           areaIntegrate;
        fields              (wallHeatFlux);
        writeFields         false;

        // Selección del parche:
        regionType          patch;
        name                rightWall;
    }

    qTopWall
    {
        type                surfaceFieldValue;
    //    functionObjectLibs  ("libfieldFunctionObjects.so");
        // region           solid;
        operation           areaIntegrate;
        fields              (wallHeatFlux);
        writeFields         false;

        // Selección del parche:
        regionType          patch;
        name                topWall;
    }

    qBottomWall
    {
        type                surfaceFieldValue;
    //    functionObjectLibs  ("libfieldFunctionObjects.so");
        // region           solid;
        operation           areaIntegrate;
        fields              (wallHeatFlux);
        writeFields         false;

        // Selección del parche:
        regionType          patch;
        name                bottomWall;
    }   

    qFront
    {
        type                surfaceFieldValue;
     //   functionObjectLibs  ("libfieldFunctionObjects.so");
        // region           solid;
        operation           areaIntegrate;
        fields              (wallHeatFlux);
        writeFields         false;

        // Selección del parche:
        regionType          patch;
        name                front;
    }   

    qBack
    {
        type                surfaceFieldValue;
    //    functionObjectLibs  ("libfieldFunctionObjects.so");
        // region           solid;
        operation           areaIntegrate;
        fields              (wallHeatFlux);
        writeFields         false;

        // Selección del parche:
        regionType          patch;
        name                back;
    }   

}

// ************************************************************************* //
