/*--------------------------------*- C++ -*----------------------------------*\
| =========                 |                                                 |
| \\      /  F ield         | foam-extend: Open Source CFD                    |
|  \\    /   O peration     | Version:     4.0                                |
|   \\  /    A nd           | Web:         http://www.foam-extend.org         |
|    \\/     M anipulation  |                                                 |
\*---------------------------------------------------------------------------*/
FoamFile
{
    version     2.0;
    format      ascii;
    class       dictionary;
    location    "system";
    object      bedPlateDict;
}
// * * * * * * * * * * * * * * * * * * * * * * * * * * * * * * * * * * * * * //

Bed true;

xmin 0.0;
xmax 0.00024;  // matches 240 µm

ymin 0.0;
ymax 0.00078;  // matches 780 µm

zmin 0.0;
zmax 0.0002;  // 200 µm plate thickness

// ************************************************************************* //
